!-Generator IDFEditor 1.51
!-Option SortedOrder

!-NOTE: All comments with '!-' are ignored by the IDFEditor and are generated automatically.
!-      Use '!' comments if they need to be retained when using the IDFEditor.


!-   ===========  ALL OBJECTS IN CLASS: VERSION ===========

Version,
    9.5;                     !- Version Identifier


!-   ===========  ALL OBJECTS IN CLASS: SIMULATIONCONTROL ===========

SimulationControl,
    Yes,                     !- Do Zone Sizing Calculation
    Yes,                     !- Do System Sizing Calculation
    No,                      !- Do Plant Sizing Calculation
    No,                      !- Run Simulation for Sizing Periods
    Yes,                     !- Run Simulation for Weather File Run Periods
    No,                      !- Do HVAC Sizing Simulation for Sizing Periods
    1;                       !- Maximum Number of HVAC Sizing Simulation Passes


!-   ===========  ALL OBJECTS IN CLASS: BUILDING ===========

Building,
    topfloor,                !- Name
    0.0,                     !- North Axis {deg}
    City,                    !- Terrain
    0.04,                    !- Loads Convergence Tolerance Value {W}
    0.4,                     !- Temperature Convergence Tolerance Value {deltaC}
    FullInteriorAndExteriorWithReflections,  !- Solar Distribution
    25,                      !- Maximum Number of Warmup Days
    ;                        !- Minimum Number of Warmup Days


!-   ===========  ALL OBJECTS IN CLASS: SHADOWCALCULATION ===========

ShadowCalculation,
    PolygonClipping,         !- Shading Calculation Method
    Periodic,                !- Shading Calculation Update Frequency Method
    20,                      !- Shading Calculation Update Frequency
    15000,                   !- Maximum Figures in Shadow Overlap Calculations
    SlaterBarskyandSutherlandHodgman,  !- Polygon Clipping Algorithm
    512,                     !- Pixel Counting Resolution
    SimpleSkyDiffuseModeling,!- Sky Diffuse Modeling Algorithm
    No,                      !- Output External Shading Calculation Results
    No,                      !- Disable Self-Shading Within Shading Zone Groups
    No;                      !- Disable Self-Shading From Shading Zone Groups to Other Zones


!-   ===========  ALL OBJECTS IN CLASS: SURFACECONVECTIONALGORITHM:INSIDE ===========

SurfaceConvectionAlgorithm:Inside,
    AdaptiveConvectionAlgorithm;  !- Algorithm


!-   ===========  ALL OBJECTS IN CLASS: SURFACECONVECTIONALGORITHM:OUTSIDE ===========

SurfaceConvectionAlgorithm:Outside,
    AdaptiveConvectionAlgorithm;  !- Algorithm


!-   ===========  ALL OBJECTS IN CLASS: ZONEAIRCONTAMINANTBALANCE ===========

ZoneAirContaminantBalance,
    Yes,                     !- Carbon Dioxide Concentration
    Outdoor CO2,             !- Outdoor Carbon Dioxide Schedule Name
    No;                      !- Generic Contaminant Concentration


!-   ===========  ALL OBJECTS IN CLASS: TIMESTEP ===========

Timestep,
    4;                       !- Number of Timesteps per Hour


!-   ===========  ALL OBJECTS IN CLASS: SIZINGPERIOD:WEATHERFILEDAYS ===========

SizingPeriod:WeatherFileDays,
    Cooling,                 !- Name
    7,                       !- Begin Month
    1,                       !- Begin Day of Month
    7,                       !- End Month
    30,                      !- End Day of Month
    Monday,                  !- Day of Week for Start Day
    Yes,                     !- Use Weather File Daylight Saving Period
    Yes;                     !- Use Weather File Rain and Snow Indicators

SizingPeriod:WeatherFileDays,
    Heating,                 !- Name
    1,                       !- Begin Month
    1,                       !- Begin Day of Month
    1,                       !- End Month
    30,                      !- End Day of Month
    Monday,                  !- Day of Week for Start Day
    Yes,                     !- Use Weather File Daylight Saving Period
    Yes;                     !- Use Weather File Rain and Snow Indicators


!-   ===========  ALL OBJECTS IN CLASS: RUNPERIOD ===========

RunPeriod,
    RUNPERIOD1,              !- Name
    1,                       !- Begin Month
    1,                       !- Begin Day of Month
    2019,                    !- Begin Year
    12,                      !- End Month
    31,                      !- End Day of Month
    2019,                    !- End Year
    Tuesday,                 !- Day of Week for Start Day
    No,                      !- Use Weather File Holidays and Special Days
    No,                      !- Use Weather File Daylight Saving Period
    Yes,                     !- Apply Weekend Holiday Rule
    Yes,                     !- Use Weather File Rain Indicators
    Yes,                     !- Use Weather File Snow Indicators
    No;                      !- Treat Weather as Actual


!-   ===========  ALL OBJECTS IN CLASS: RUNPERIODCONTROL:SPECIALDAYS ===========

RunPeriodControl:SpecialDays,
    New Years Break,         !- Name
    January 1,               !- Start Date
    4,                       !- Duration {days}
    Holiday;                 !- Special Day Type

RunPeriodControl:SpecialDays,
    Christmas Break,         !- Name
    December 24,             !- Start Date
    8,                       !- Duration {days}
    Holiday;                 !- Special Day Type

RunPeriodControl:SpecialDays,
    Family Day,              !- Name
    3rd Monday in February,  !- Start Date
    1,                       !- Duration {days}
    Holiday;                 !- Special Day Type

RunPeriodControl:SpecialDays,
    Labour Day,              !- Name
    1st Monday in September, !- Start Date
    1,                       !- Duration {days}
    Holiday;                 !- Special Day Type

RunPeriodControl:SpecialDays,
    Thanksgiving,            !- Name
    2nd Monday in October,   !- Start Date
    1,                       !- Duration {days}
    Holiday;                 !- Special Day Type

RunPeriodControl:SpecialDays,
    Good Friday,             !- Name
    3rd Friday in April,     !- Start Date
    1,                       !- Duration {days}
    Holiday;                 !- Special Day Type

RunPeriodControl:SpecialDays,
    Victoria Day,            !- Name
    3rd Monday in May,       !- Start Date
    1,                       !- Duration {days}
    Holiday;                 !- Special Day Type

RunPeriodControl:SpecialDays,
    Canada Day,              !- Name
    July 1,                  !- Start Date
    1,                       !- Duration {days}
    Holiday;                 !- Special Day Type

RunPeriodControl:SpecialDays,
    Civic Holiday,           !- Name
    1st Monday in August,    !- Start Date
    1,                       !- Duration {days}
    Holiday;                 !- Special Day Type


!-   ===========  ALL OBJECTS IN CLASS: SITE:GROUNDREFLECTANCE ===========

Site:GroundReflectance,
    0.6,                     !- January Ground Reflectance {dimensionless}
    0.6,                     !- February Ground Reflectance {dimensionless}
    0.5,                     !- March Ground Reflectance {dimensionless}
    0.3,                     !- April Ground Reflectance {dimensionless}
    0.3,                     !- May Ground Reflectance {dimensionless}
    0.3,                     !- June Ground Reflectance {dimensionless}
    0.3,                     !- July Ground Reflectance {dimensionless}
    0.3,                     !- August Ground Reflectance {dimensionless}
    0.3,                     !- September Ground Reflectance {dimensionless}
    0.3,                     !- October Ground Reflectance {dimensionless}
    0.3,                     !- November Ground Reflectance {dimensionless}
    0.5;                     !- December Ground Reflectance {dimensionless}


!-   ===========  ALL OBJECTS IN CLASS: SCHEDULETYPELIMITS ===========

ScheduleTypeLimits,
    Any Number;              !- Name

ScheduleTypeLimits,
    Fraction,                !- Name
    0.0,                     !- Lower Limit Value
    1.0,                     !- Upper Limit Value
    CONTINUOUS;              !- Numeric Type

ScheduleTypeLimits,
    Temperature,             !- Name
    -60,                     !- Lower Limit Value
    200,                     !- Upper Limit Value
    CONTINUOUS;              !- Numeric Type

ScheduleTypeLimits,
    On/Off,                  !- Name
    0,                       !- Lower Limit Value
    1,                       !- Upper Limit Value
    DISCRETE;                !- Numeric Type

ScheduleTypeLimits,
    Control Type,            !- Name
    0,                       !- Lower Limit Value
    4,                       !- Upper Limit Value
    DISCRETE;                !- Numeric Type

ScheduleTypeLimits,
    Humidity,                !- Name
    10,                      !- Lower Limit Value
    90,                      !- Upper Limit Value
    CONTINUOUS;              !- Numeric Type

ScheduleTypeLimits,
    Number;                  !- Name

ScheduleTypeLimits,
    HVACTemplate Any Number; !- Name


!-   ===========  ALL OBJECTS IN CLASS: SCHEDULE:COMPACT ===========

Schedule:Compact,
    Infiltration Quarter On Schedule,  !- Name
    Fraction,                !- Schedule Type Limits Name
    Through: 12/31,          !- Field 1
    For: Weekdays SummerDesignDay,  !- Field 2
    Until: 06:00,            !- Field 3
    1.0,                     !- Field 4
    Until: 22:00,            !- Field 5
    0.25,                    !- Field 6
    Until: 24:00,            !- Field 7
    1.0,                     !- Field 8
    For: Saturday WinterDesignDay,  !- Field 9
    Until: 06:00,            !- Field 10
    1.0,                     !- Field 11
    Until: 18:00,            !- Field 12
    0.25,                    !- Field 13
    Until: 24:00,            !- Field 14
    1.0,                     !- Field 15
    For: Sunday Holidays AllOtherDays,  !- Field 16
    Until: 24:00,            !- Field 17
    1.0;                     !- Field 18

Schedule:Compact,
    Always On,               !- Name
    Fraction,                !- Schedule Type Limits Name
    Through: 12/31,          !- Field 1
    For: AllDays,            !- Field 2
    Until: 24:00,            !- Field 3
    1.0;                     !- Field 4

Schedule:Compact,
    Always Off,              !- Name
    Fraction,                !- Schedule Type Limits Name
    Through: 12/31,          !- Field 1
    For: AllDays,            !- Field 2
    Until: 24:00,            !- Field 3
    0.0;                     !- Field 4

Schedule:Compact,
    HVACTemplate-Always 4,   !- Name
    HVACTemplate Any Number, !- Schedule Type Limits Name
    Through: 12/31,          !- Field 1
    For: AllDays,            !- Field 2
    Until: 24:00,            !- Field 3
    4;                       !- Field 4

Schedule:Compact,
    HVACTemplate-Always 30,  !- Name
    HVACTemplate Any Number, !- Schedule Type Limits Name
    Through: 12/31,          !- Field 1
    For: AllDays,            !- Field 2
    Until: 24:00,            !- Field 3
    30;                      !- Field 4

Schedule:Compact,
    HVACTemplate-Always 100, !- Name
    HVACTemplate Any Number, !- Schedule Type Limits Name
    Through: 12/31,          !- Field 1
    For: AllDays,            !- Field 2
    Until: 24:00,            !- Field 3
    100;                     !- Field 4

Schedule:Compact,
    HVACTemplate-Always 1,   !- Name
    HVACTemplate Any Number, !- Schedule Type Limits Name
    Through: 12/31,          !- Field 1
    For: AllDays,            !- Field 2
    Until: 24:00,            !- Field 3
    1;                       !- Field 4

Schedule:Compact,
    Office Activity Schedule,!- Name
    Any Number,              !- Schedule Type Limits Name
    Through: 12/31,          !- Field 1
    For: AllDays,            !- Field 2
    Until: 24:00,            !- Field 3
    120.;                    !- Field 4


!-   ===========  ALL OBJECTS IN CLASS: SCHEDULE:CONSTANT ===========

Schedule:Constant,
    tSetHtg,                 !- Name
    Any Number,              !- Schedule Type Limits Name
    1;                       !- Hourly Value

Schedule:Constant,
    tSetClg,                 !- Name
    Any Number,              !- Schedule Type Limits Name
    1;                       !- Hourly Value

Schedule:Constant,
    ahuAvail,                !- Name
    Any Number,              !- Schedule Type Limits Name
    1;                       !- Hourly Value

Schedule:Constant,
    heatAvail,               !- Name
    Any Number,              !- Schedule Type Limits Name
    1;                       !- Hourly Value

Schedule:Constant,
    coolAvail,               !- Name
    Any Number,              !- Schedule Type Limits Name
    1;                       !- Hourly Value

Schedule:Constant,
    oaMinFrac,               !- Name
    Any Number,              !- Schedule Type Limits Name
    0.43;                    !- Hourly Value

Schedule:Constant,
    Outdoor CO2,             !- Name
    Any Number,              !- Schedule Type Limits Name
    400;                     !- Hourly Value

Schedule:Constant,
    lightSchRM4534,          !- Name
    Any Number,              !- Schedule Type Limits Name
    1;                       !- Hourly Value

Schedule:Constant,
    lightSchRM4532,          !- Name
    Any Number,              !- Schedule Type Limits Name
    1;                       !- Hourly Value

Schedule:Constant,
    lightSchRM4530,          !- Name
    Any Number,              !- Schedule Type Limits Name
    1;                       !- Hourly Value

Schedule:Constant,
    lightSchRM4528,          !- Name
    Any Number,              !- Schedule Type Limits Name
    1;                       !- Hourly Value

Schedule:Constant,
    lightSchRM4527,          !- Name
    Any Number,              !- Schedule Type Limits Name
    1;                       !- Hourly Value

Schedule:Constant,
    lightSchRM4525,          !- Name
    Any Number,              !- Schedule Type Limits Name
    1;                       !- Hourly Value

Schedule:Constant,
    lightSchRM4523,          !- Name
    Any Number,              !- Schedule Type Limits Name
    1;                       !- Hourly Value

Schedule:Constant,
    lightSchRM4522,          !- Name
    Any Number,              !- Schedule Type Limits Name
    1;                       !- Hourly Value

Schedule:Constant,
    lightSchRM4521,          !- Name
    Any Number,              !- Schedule Type Limits Name
    1;                       !- Hourly Value

Schedule:Constant,
    lightSchRM4514D,         !- Name
    Any Number,              !- Schedule Type Limits Name
    1;                       !- Hourly Value

Schedule:Constant,
    lightSchRM4514C,         !- Name
    Any Number,              !- Schedule Type Limits Name
    1;                       !- Hourly Value

Schedule:Constant,
    lightSchRM4514,          !- Name
    Any Number,              !- Schedule Type Limits Name
    1;                       !- Hourly Value

Schedule:Constant,
    lightSchRM4514B,         !- Name
    Any Number,              !- Schedule Type Limits Name
    1;                       !- Hourly Value

Schedule:Constant,
    lightSchRM4514A,         !- Name
    Any Number,              !- Schedule Type Limits Name
    1;                       !- Hourly Value

Schedule:Constant,
    lightSchRM4520,          !- Name
    Any Number,              !- Schedule Type Limits Name
    1;                       !- Hourly Value

Schedule:Constant,
    lightSchRM4524,          !- Name
    Any Number,              !- Schedule Type Limits Name
    1;                       !- Hourly Value

Schedule:Constant,
    lightSchRM4526,          !- Name
    Any Number,              !- Schedule Type Limits Name
    1;                       !- Hourly Value

Schedule:Constant,
    lightSchRM4535,          !- Name
    Any Number,              !- Schedule Type Limits Name
    1;                       !- Hourly Value

Schedule:Constant,
    lightSchRM4533,          !- Name
    Any Number,              !- Schedule Type Limits Name
    1;                       !- Hourly Value

Schedule:Constant,
    lightSchRM4537,          !- Name
    Any Number,              !- Schedule Type Limits Name
    1;                       !- Hourly Value

Schedule:Constant,
    lightSchRM4536,          !- Name
    Any Number,              !- Schedule Type Limits Name
    1;                       !- Hourly Value

Schedule:Constant,
    lightSchRM4539,          !- Name
    Any Number,              !- Schedule Type Limits Name
    1;                       !- Hourly Value

Schedule:Constant,
    lightSchRM4541,          !- Name
    Any Number,              !- Schedule Type Limits Name
    1;                       !- Hourly Value

Schedule:Constant,
    lightSchRM4543,          !- Name
    Any Number,              !- Schedule Type Limits Name
    1;                       !- Hourly Value

Schedule:Constant,
    lightSchRM4513,          !- Name
    Any Number,              !- Schedule Type Limits Name
    1;                       !- Hourly Value

Schedule:Constant,
    lightSchRM4500,          !- Name
    Any Number,              !- Schedule Type Limits Name
    1;                       !- Hourly Value

Schedule:Constant,
    plugSchRM4534,           !- Name
    Any Number,              !- Schedule Type Limits Name
    1;                       !- Hourly Value

Schedule:Constant,
    plugSchRM4532,           !- Name
    Any Number,              !- Schedule Type Limits Name
    1;                       !- Hourly Value

Schedule:Constant,
    plugSchRM4530,           !- Name
    Any Number,              !- Schedule Type Limits Name
    1;                       !- Hourly Value

Schedule:Constant,
    plugSchRM4528,           !- Name
    Any Number,              !- Schedule Type Limits Name
    1;                       !- Hourly Value

Schedule:Constant,
    plugSchRM4527,           !- Name
    Any Number,              !- Schedule Type Limits Name
    1;                       !- Hourly Value

Schedule:Constant,
    plugSchRM4525,           !- Name
    Any Number,              !- Schedule Type Limits Name
    1;                       !- Hourly Value

Schedule:Constant,
    plugSchRM4523,           !- Name
    Any Number,              !- Schedule Type Limits Name
    1;                       !- Hourly Value

Schedule:Constant,
    plugSchRM4522,           !- Name
    Any Number,              !- Schedule Type Limits Name
    1;                       !- Hourly Value

Schedule:Constant,
    plugSchRM4521,           !- Name
    Any Number,              !- Schedule Type Limits Name
    1;                       !- Hourly Value

Schedule:Constant,
    plugSchRM4514D,          !- Name
    Any Number,              !- Schedule Type Limits Name
    1;                       !- Hourly Value

Schedule:Constant,
    plugSchRM4514C,          !- Name
    Any Number,              !- Schedule Type Limits Name
    1;                       !- Hourly Value

Schedule:Constant,
    plugSchRM4514B,          !- Name
    Any Number,              !- Schedule Type Limits Name
    1;                       !- Hourly Value

Schedule:Constant,
    plugSchRM4514A,          !- Name
    Any Number,              !- Schedule Type Limits Name
    1;                       !- Hourly Value

Schedule:Constant,
    plugSchRM4520,           !- Name
    Any Number,              !- Schedule Type Limits Name
    1;                       !- Hourly Value

Schedule:Constant,
    plugSchRM4524,           !- Name
    Any Number,              !- Schedule Type Limits Name
    1;                       !- Hourly Value

Schedule:Constant,
    plugSchRM4526,           !- Name
    Any Number,              !- Schedule Type Limits Name
    1;                       !- Hourly Value

Schedule:Constant,
    plugSchRM4535,           !- Name
    Any Number,              !- Schedule Type Limits Name
    1;                       !- Hourly Value

Schedule:Constant,
    plugSchRM4533,           !- Name
    Any Number,              !- Schedule Type Limits Name
    1;                       !- Hourly Value

Schedule:Constant,
    plugSchRM4537,           !- Name
    Any Number,              !- Schedule Type Limits Name
    1;                       !- Hourly Value

Schedule:Constant,
    plugSchRM4536,           !- Name
    Any Number,              !- Schedule Type Limits Name
    1;                       !- Hourly Value

Schedule:Constant,
    plugSchRM4539,           !- Name
    Any Number,              !- Schedule Type Limits Name
    1;                       !- Hourly Value

Schedule:Constant,
    plugSchRM4541,           !- Name
    Any Number,              !- Schedule Type Limits Name
    1;                       !- Hourly Value

Schedule:Constant,
    plugSchRM4543,           !- Name
    Any Number,              !- Schedule Type Limits Name
    1;                       !- Hourly Value

Schedule:Constant,
    plugSchRM4513,           !- Name
    Any Number,              !- Schedule Type Limits Name
    1;                       !- Hourly Value

Schedule:Constant,
    plugSchRM4500,           !- Name
    Any Number,              !- Schedule Type Limits Name
    1;                       !- Hourly Value

Schedule:Constant,
    plugSchRM4514,           !- Name
    Any Number,              !- Schedule Type Limits Name
    1;                       !- Hourly Value


!-   ===========  ALL OBJECTS IN CLASS: SCHEDULE:FILE ===========

Schedule:File,
    occSch RM4534,           !- Name
    Any Number,              !- Schedule Type Limits Name
    occSch.csv,              !- File Name
    2,                       !- Column Number
    1,                       !- Rows to Skip at Top
    8760,                    !- Number of Hours of Data
    Comma,                   !- Column Separator
    Yes,                     !- Interpolate to Timestep
    60;                      !- Minutes per Item

Schedule:File,
    occSch RM4532,           !- Name
    Any Number,              !- Schedule Type Limits Name
    occSch.csv,              !- File Name
    3,                       !- Column Number
    1,                       !- Rows to Skip at Top
    8760,                    !- Number of Hours of Data
    Comma,                   !- Column Separator
    Yes,                     !- Interpolate to Timestep
    60;                      !- Minutes per Item

Schedule:File,
    occSch RM4530,           !- Name
    Any Number,              !- Schedule Type Limits Name
    occSch.csv,              !- File Name
    4,                       !- Column Number
    1,                       !- Rows to Skip at Top
    8760,                    !- Number of Hours of Data
    Comma,                   !- Column Separator
    Yes,                     !- Interpolate to Timestep
    60;                      !- Minutes per Item

Schedule:File,
    occSch RM4528,           !- Name
    Any Number,              !- Schedule Type Limits Name
    occSch.csv,              !- File Name
    5,                       !- Column Number
    1,                       !- Rows to Skip at Top
    8760,                    !- Number of Hours of Data
    Comma,                   !- Column Separator
    Yes,                     !- Interpolate to Timestep
    60;                      !- Minutes per Item

Schedule:File,
    occSch RM4527,           !- Name
    Any Number,              !- Schedule Type Limits Name
    occSch.csv,              !- File Name
    6,                       !- Column Number
    1,                       !- Rows to Skip at Top
    8760,                    !- Number of Hours of Data
    Comma,                   !- Column Separator
    Yes,                     !- Interpolate to Timestep
    60;                      !- Minutes per Item

Schedule:File,
    occSch RM4525,           !- Name
    Any Number,              !- Schedule Type Limits Name
    occSch.csv,              !- File Name
    7,                       !- Column Number
    1,                       !- Rows to Skip at Top
    8760,                    !- Number of Hours of Data
    Comma,                   !- Column Separator
    Yes,                     !- Interpolate to Timestep
    60;                      !- Minutes per Item

Schedule:File,
    occSch RM4523,           !- Name
    Any Number,              !- Schedule Type Limits Name
    occSch.csv,              !- File Name
    8,                       !- Column Number
    1,                       !- Rows to Skip at Top
    8760,                    !- Number of Hours of Data
    Comma,                   !- Column Separator
    Yes,                     !- Interpolate to Timestep
    60;                      !- Minutes per Item

Schedule:File,
    occSch RM4522,           !- Name
    Any Number,              !- Schedule Type Limits Name
    occSch.csv,              !- File Name
    9,                       !- Column Number
    1,                       !- Rows to Skip at Top
    8760,                    !- Number of Hours of Data
    Comma,                   !- Column Separator
    Yes,                     !- Interpolate to Timestep
    60;                      !- Minutes per Item

Schedule:File,
    occSch RM4521,           !- Name
    Any Number,              !- Schedule Type Limits Name
    occSch.csv,              !- File Name
    10,                      !- Column Number
    1,                       !- Rows to Skip at Top
    8760,                    !- Number of Hours of Data
    Comma,                   !- Column Separator
    Yes,                     !- Interpolate to Timestep
    60;                      !- Minutes per Item

Schedule:File,
    occSch RM4514D,          !- Name
    Any Number,              !- Schedule Type Limits Name
    occSch.csv,              !- File Name
    11,                      !- Column Number
    1,                       !- Rows to Skip at Top
    8760,                    !- Number of Hours of Data
    Comma,                   !- Column Separator
    Yes,                     !- Interpolate to Timestep
    60;                      !- Minutes per Item

Schedule:File,
    occSch RM4514C,          !- Name
    Any Number,              !- Schedule Type Limits Name
    occSch.csv,              !- File Name
    12,                      !- Column Number
    1,                       !- Rows to Skip at Top
    8760,                    !- Number of Hours of Data
    Comma,                   !- Column Separator
    Yes,                     !- Interpolate to Timestep
    60;                      !- Minutes per Item

Schedule:File,
    occSch RM4514,           !- Name
    Any Number,              !- Schedule Type Limits Name
    occSch.csv,              !- File Name
    13,                      !- Column Number
    1,                       !- Rows to Skip at Top
    8760,                    !- Number of Hours of Data
    Comma,                   !- Column Separator
    Yes,                     !- Interpolate to Timestep
    60;                      !- Minutes per Item

Schedule:File,
    occSch RM4514B,          !- Name
    Any Number,              !- Schedule Type Limits Name
    occSch.csv,              !- File Name
    14,                      !- Column Number
    1,                       !- Rows to Skip at Top
    8760,                    !- Number of Hours of Data
    Comma,                   !- Column Separator
    Yes,                     !- Interpolate to Timestep
    60;                      !- Minutes per Item

Schedule:File,
    occSch RM4514A,          !- Name
    Any Number,              !- Schedule Type Limits Name
    occSch.csv,              !- File Name
    15,                      !- Column Number
    1,                       !- Rows to Skip at Top
    8760,                    !- Number of Hours of Data
    Comma,                   !- Column Separator
    Yes,                     !- Interpolate to Timestep
    60;                      !- Minutes per Item

Schedule:File,
    occSch RM4520,           !- Name
    Any Number,              !- Schedule Type Limits Name
    occSch.csv,              !- File Name
    16,                      !- Column Number
    1,                       !- Rows to Skip at Top
    8760,                    !- Number of Hours of Data
    Comma,                   !- Column Separator
    Yes,                     !- Interpolate to Timestep
    60;                      !- Minutes per Item

Schedule:File,
    occSch RM4524,           !- Name
    Any Number,              !- Schedule Type Limits Name
    occSch.csv,              !- File Name
    17,                      !- Column Number
    1,                       !- Rows to Skip at Top
    8760,                    !- Number of Hours of Data
    Comma,                   !- Column Separator
    Yes,                     !- Interpolate to Timestep
    60;                      !- Minutes per Item

Schedule:File,
    occSch RM4526,           !- Name
    Any Number,              !- Schedule Type Limits Name
    occSch.csv,              !- File Name
    18,                      !- Column Number
    1,                       !- Rows to Skip at Top